Structure15
                    3D
 Schrodinger Suite 2023-4.
 38 40  0  0  1  0            999 V2000
   17.8778   11.0236   -3.1469 C   0  0  0  0  0  0
   14.8176   10.1479   -4.5341 C   0  0  0  0  0  0
   14.2119   12.4100   -5.0883 C   0  0  0  0  0  0
   13.9942    9.6654   -5.5257 C   0  0  0  0  0  0
   13.3855   11.9235   -6.0809 C   0  0  0  0  0  0
   16.1756   10.5565   -1.4939 C   0  0  0  0  0  0
   16.5897   11.1818   -2.6637 C   0  0  0  0  0  0
   14.8365   10.7178   -0.9458 C   0  0  0  0  0  0
   11.4677   12.0475   -0.2651 C   0  0  0  0  0  0
   18.3504    9.5350   -1.3372 C   0  0  0  0  0  0
   18.7626   10.2008   -2.4777 C   0  0  0  0  0  0
   17.0694    9.7102   -0.8543 C   0  0  0  0  0  0
   13.8756   11.6986   -1.1024 C   0  0  0  0  0  0
   12.7167   11.3340   -0.3670 C   0  0  0  0  0  0
   14.9344   11.5110   -4.3262 C   0  0  0  0  0  0
   13.2886   10.5623   -6.2917 C   0  0  0  0  0  0
   12.9995   10.1108    0.2250 C   0  0  0  0  0  0
   12.2148    9.2061    1.1023 C   0  0  0  0  0  0
   14.2748    9.7686   -0.1244 N   0  0  0  0  0  0
   11.4180   13.1862   -1.0495 N   0  0  0  0  0  0
   10.5459   11.6850    0.4517 O   0  0  0  0  0  0
   15.7430   12.0525   -3.3396 O   0  0  0  0  0  0
   12.2670    9.9366   -7.5316 Cl  0  0  0  0  0  0
   18.1860   11.5423   -4.0427 H   0  0  0  0  0  0
   15.3758    9.4618   -3.9143 H   0  0  0  0  0  0
   14.2845   13.4742   -4.9196 H   0  0  0  0  0  0
   13.9122    8.6010   -5.6892 H   0  0  0  0  0  0
   12.8151   12.6073   -6.6920 H   0  0  0  0  0  0
   19.0320    8.8750   -0.8212 H   0  0  0  0  0  0
   19.7709   10.0796   -2.8453 H   0  0  0  0  0  0
   16.7665    9.1771    0.0348 H   0  0  0  0  0  0
   14.0830   12.5652   -1.7126 H   0  0  0  0  0  0
   12.8141    8.3302    1.3507 H   0  0  0  0  0  0
   11.9438    9.7319    2.0178 H   0  0  0  0  0  0
   11.3096    8.8910    0.5833 H   0  0  0  0  0  0
   12.2121   13.4426   -1.6185 H   0  0  0  0  0  0
   14.7535    8.9113    0.1867 H   0  0  0  0  0  0
   10.5711   13.7724   -1.0532 H   0  0  0  0  0  0
  1  7  2  0  0  0
  1 11  1  0  0  0
  1 24  1  0  0  0
  2  4  2  0  0  0
  2 15  1  0  0  0
  2 25  1  0  0  0
  3  5  1  0  0  0
  3 15  2  0  0  0
  3 26  1  0  0  0
  4 16  1  0  0  0
  4 27  1  0  0  0
  5 16  2  0  0  0
  5 28  1  0  0  0
  6  7  1  0  0  0
  6  8  1  0  0  0
  6 12  2  0  0  0
  7 22  1  0  0  0
  8 13  2  0  0  0
  8 19  1  0  0  0
  9 14  1  0  0  0
  9 20  1  0  0  0
  9 21  2  0  0  0
 10 11  2  0  0  0
 10 12  1  0  0  0
 10 29  1  0  0  0
 11 30  1  0  0  0
 12 31  1  0  0  0
 13 14  1  0  0  0
 13 32  1  0  0  0
 14 17  2  0  0  0
 15 22  1  0  0  0
 16 23  1  0  0  0
 17 18  1  0  0  0
 17 19  1  0  0  0
 18 33  1  0  0  0
 18 34  1  0  0  0
 18 35  1  0  0  0
 19 37  1  0  0  0
 20 36  1  0  0  0
 20 38  1  0  0  0
M  END
> <i_epik_Tot_Q>
0

> <i_m_Source_File_Index>
1

> <i_m_stars>
0

> <b_m_subgroup_collapsed>
0

> <r_epik_State_Penalty>
0

> <r_pdb_PDB_EXPDTA_TEMPERATURE>
100

> <r_pdb_PDB_RESOLUTION>
1.62

> <s_m_Source_File>
epik_states_33.out.maegz

> <s_m_Source_Path>
/Users/scottzhuang/epik_states_33

> <s_m_entry_id>
47

> <s_m_job_name>
epik_states_33

> <s_m_subgroup_title>
epik_states_33.out

> <s_m_subgroupid>
epik_states_33.out

> <s_pdb_PDB_EXPDTA>
X-RAY DIFFRACTION

> <s_pdb_PDB_ID>
5UES

> <s_pdb_PDB_TITLE>
BRD4_BD2_A-1344772

$$$$
