Structure22
                    3D
 Schrodinger Suite 2023-4.
 29 30  0  0  1  0            999 V2000
   15.7058   11.4142   -2.6003 C   0  0  0  0  0  0
   15.8531   13.2984   -1.1022 C   0  0  0  0  0  0
   15.1387   12.2444   -1.6537 C   0  0  0  0  0  0
   11.5240   12.7542   -0.7844 C   0  0  0  0  0  0
   13.7725   11.9780   -1.1756 C   0  0  0  0  0  0
   11.3525   11.5421    0.0436 C   0  0  0  0  0  0
   17.7161   12.7173   -2.4785 C   0  0  0  0  0  0
   17.0036   11.6622   -3.0210 C   0  0  0  0  0  0
   17.1509   13.5374   -1.5220 C   0  0  0  0  0  0
   12.6911   12.9556   -1.4245 C   0  0  0  0  0  0
   12.2888    9.4373    0.8004 C   0  0  0  0  0  0
   11.9116   14.9279   -2.6304 C   0  0  0  0  0  0
   13.6323   10.9169   -0.4631 N   0  0  0  0  0  0
   12.4088   10.6757    0.0652 N   0  0  0  0  0  0
   12.9692   14.0233   -2.2541 N   0  0  0  0  0  0
   10.2670   11.3353    0.5912 O   0  0  0  0  0  0
   15.1396   10.5866   -3.0014 H   0  0  0  0  0  0
   15.3965   13.9257   -0.3509 H   0  0  0  0  0  0
   10.7176   13.4674   -0.8713 H   0  0  0  0  0  0
   18.7285   12.9085   -2.8023 H   0  0  0  0  0  0
   17.4576   11.0322   -3.7716 H   0  0  0  0  0  0
   17.7116   14.3592   -1.1018 H   0  0  0  0  0  0
   13.2159    8.8708    0.7124 H   0  0  0  0  0  0
   12.0949    9.6550    1.8507 H   0  0  0  0  0  0
   11.4652    8.8509    0.3933 H   0  0  0  0  0  0
   12.3115   15.7038   -3.2832 H   0  0  0  0  0  0
   11.1319   14.3772   -3.1568 H   0  0  0  0  0  0
   11.4905   15.3875   -1.7362 H   0  0  0  0  0  0
   13.9094   14.1674   -2.5938 H   0  0  0  0  0  0
  1  3  2  0  0  0
  1  8  1  0  0  0
  1 17  1  0  0  0
  2  3  1  0  0  0
  2  9  2  0  0  0
  2 18  1  0  0  0
  3  5  1  0  0  0
  4  6  1  0  0  0
  4 10  2  0  0  0
  4 19  1  0  0  0
  5 10  1  0  0  0
  5 13  2  0  0  0
  6 14  1  0  0  0
  6 16  2  0  0  0
  7  8  2  0  0  0
  7  9  1  0  0  0
  7 20  1  0  0  0
  8 21  1  0  0  0
  9 22  1  0  0  0
 10 15  1  0  0  0
 11 14  1  0  0  0
 11 23  1  0  0  0
 11 24  1  0  0  0
 11 25  1  0  0  0
 12 15  1  0  0  0
 12 26  1  0  0  0
 12 27  1  0  0  0
 12 28  1  0  0  0
 13 14  1  0  0  0
 15 29  1  0  0  0
M  END
> <i_epik_Tot_Q>
0

> <i_m_Source_File_Index>
1

> <i_m_stars>
0

> <b_m_subgroup_collapsed>
0

> <r_epik_State_Penalty>
0.0003

> <r_pdb_PDB_EXPDTA_PH>
7

> <r_pdb_PDB_EXPDTA_TEMPERATURE>
100

> <r_pdb_PDB_RESOLUTION>
1.35

> <s_m_Source_File>
epik_states_33.out.maegz

> <s_m_Source_Path>
/Users/scottzhuang/epik_states_33

> <s_m_entry_id>
40

> <s_m_job_name>
epik_states_33

> <s_m_subgroup_title>
epik_states_33.out

> <s_m_subgroupid>
epik_states_33.out

> <s_pdb_PDB_EXPDTA>
X-RAY DIFFRACTION

> <s_pdb_PDB_ID>
5UF0

> <s_pdb_PDB_TITLE>
BRD4_BD2-A-35165

$$$$
