Structure24
                    3D
 Schrodinger Suite 2023-4.
 48 51  0  0  1  0            999 V2000
   18.1752   10.8014   -3.0553 C   0  0  0  0  0  0
   14.4850    9.7235   -5.2037 C   0  0  0  0  0  0
   13.5253   11.7517   -6.0367 C   0  0  0  0  0  0
   17.1303   11.2126   -3.8459 C   0  0  0  0  0  0
   13.5285   13.5719   -2.3245 C   0  0  0  0  0  0
   12.3811   14.2881   -2.1279 C   0  0  0  0  0  0
   17.9582   10.5306   -1.7234 C   0  0  0  0  0  0
   15.8637   11.3478   -3.2995 C   0  0  0  0  0  0
   13.8383   10.3321   -0.5025 C   0  0  0  0  0  0
   12.2337    9.2298    0.9490 C   0  0  0  0  0  0
   18.3172    8.6702    1.1279 C   0  0  0  0  0  0
   13.0977    9.6942   -7.1496 C   0  0  0  0  0  0
   13.8679    9.0390   -6.2183 C   0  0  0  0  0  0
   12.9205   11.0569   -7.0604 C   0  0  0  0  0  0
   16.6844   10.6625   -1.1854 C   0  0  0  0  0  0
   13.4244   12.3824   -1.5495 C   0  0  0  0  0  0
   15.6226   11.0891   -1.9603 C   0  0  0  0  0  0
   14.3165   11.0828   -5.1232 C   0  0  0  0  0  0
   12.2070   12.4382   -0.9034 C   0  0  0  0  0  0
   14.2920   11.2773   -1.3425 C   0  0  0  0  0  0
   11.7110   11.4149   -0.0126 C   0  0  0  0  0  0
   11.5707   13.5927   -1.2742 N   0  0  0  0  0  0
   12.6116   10.3776    0.1322 N   0  0  0  0  0  0
   19.1179   10.1066   -1.0097 N   0  0  0  0  0  0
   10.6155   11.5007    0.5369 O   0  0  0  0  0  0
   20.5464    9.9404    1.1079 O   0  0  0  0  0  0
   18.4132   11.3275    1.1153 O   0  0  0  0  0  0
   14.8741   11.8549   -4.1232 O   0  0  0  0  0  0
   19.1727   10.1716    0.6847 S   0  0  0  0  0  0
   19.1689   10.6852   -3.4679 H   0  0  0  0  0  0
   15.0913    9.1772   -4.4902 H   0  0  0  0  0  0
   13.3927   12.8255   -5.9592 H   0  0  0  0  0  0
   17.2953   11.4379   -4.8933 H   0  0  0  0  0  0
   14.3555   13.8883   -2.9397 H   0  0  0  0  0  0
   12.0672   15.2389   -2.5309 H   0  0  0  0  0  0
   14.4247    9.4462   -0.2938 H   0  0  0  0  0  0
   12.5653    8.3158    0.4509 H   0  0  0  0  0  0
   11.1494    9.1834    1.0731 H   0  0  0  0  0  0
   12.7087    9.2988    1.9269 H   0  0  0  0  0  0
   12.6286    9.1331   -7.9485 H   0  0  0  0  0  0
   14.0147    7.9710   -6.2941 H   0  0  0  0  0  0
   12.3098   11.5762   -7.7907 H   0  0  0  0  0  0
   16.5040   10.4553   -0.1414 H   0  0  0  0  0  0
   18.7107    8.3297    2.0816 H   0  0  0  0  0  0
   17.2491    8.8790    1.2211 H   0  0  0  0  0  0
   18.4998    7.9228    0.3523 H   0  0  0  0  0  0
   10.6351   13.8886   -0.9613 H   0  0  0  0  0  0
   19.9342    9.7558   -1.5307 H   0  0  0  0  0  0
  1  4  2  0  0  0
  1  7  1  0  0  0
  1 30  1  0  0  0
  2 13  2  0  0  0
  2 18  1  0  0  0
  2 31  1  0  0  0
  3 14  1  0  0  0
  3 18  2  0  0  0
  3 32  1  0  0  0
  4  8  1  0  0  0
  4 33  1  0  0  0
  5  6  2  0  0  0
  5 16  1  0  0  0
  5 34  1  0  0  0
  6 22  1  0  0  0
  6 35  1  0  0  0
  7 15  2  0  0  0
  7 24  1  0  0  0
  8 17  2  0  0  0
  8 28  1  0  0  0
  9 20  2  0  0  0
  9 23  1  0  0  0
  9 36  1  0  0  0
 10 23  1  0  0  0
 10 37  1  0  0  0
 10 38  1  0  0  0
 10 39  1  0  0  0
 11 29  1  0  0  0
 11 44  1  0  0  0
 11 45  1  0  0  0
 11 46  1  0  0  0
 12 13  1  0  0  0
 12 14  2  0  0  0
 12 40  1  0  0  0
 13 41  1  0  0  0
 14 42  1  0  0  0
 15 17  1  0  0  0
 15 43  1  0  0  0
 16 19  2  0  0  0
 16 20  1  0  0  0
 17 20  1  0  0  0
 18 28  1  0  0  0
 19 21  1  0  0  0
 19 22  1  0  0  0
 21 23  1  0  0  0
 21 25  2  0  0  0
 22 47  1  0  0  0
 24 29  1  0  0  0
 24 48  1  0  0  0
 26 29  2  0  0  0
 27 29  2  0  0  0
M  END
> <i_epik_Tot_Q>
0

> <i_m_Source_File_Index>
1

> <i_m_stars>
0

> <b_m_subgroup_collapsed>
0

> <r_epik_State_Penalty>
0.0768

> <r_pdb_PDB_EXPDTA_TEMPERATURE>
100

> <r_pdb_PDB_RESOLUTION>
1.53

> <s_m_Source_File>
epik_states_33.out.maegz

> <s_m_Source_Path>
/Users/scottzhuang/epik_states_33

> <s_m_entry_id>
37

> <s_m_job_name>
epik_states_33

> <s_m_subgroup_title>
epik_states_33.out

> <s_m_subgroupid>
epik_states_33.out

> <s_pdb_PDB_EXPDTA>
X-RAY DIFFRACTION

> <s_pdb_PDB_ID>
5UVX

> <s_pdb_PDB_TITLE>
BRD4 BROMODOMAIN 2 WITH A-1359643

$$$$
